Circuit: * D:\TCIIRepository\TCII\TS12-Comp\Draft3.asc

Direct Newton iteration for .op point succeeded.

Date: Mon Oct 03 12:45:27 2022
Total elapsed time: 0.179 seconds.

tnom = 27
temp = 27
method = trap
totiter = 9
traniter = 0
tranpoints = 0
accept = 0
rejected = 0
matrix size = 15
fillins = 0
solver = Normal
Matrix Compiler1:      49 opcodes
Matrix Compiler2: 1.15 KB object code size
