Circuit: * D:\TCIIRepository\TCII\TS12-Comp\Draft1.asc


Date: Sat Oct 01 22:28:11 2022
Total elapsed time: 0.015 seconds.

tnom = 27
temp = 27
method = trap
totiter = 0
traniter = 0
tranpoints = 0
accept = 0
rejected = 0
matrix size = 4
fillins = 1
solver = Normal

