Circuit: * D:\TCIIRepository\TCII\TS15\Draft1.asc

WARNING: Less than two connections to node NC_01.  This node is used by R2.
WARNING: Less than two connections to node OUT.  This node is used by Q2.
Direct Newton iteration for .op point succeeded.

Date: Mon Oct 31 23:03:57 2022
Total elapsed time: 0.053 seconds.

tnom = 27
temp = 27
method = modified trap
totiter = 2092
traniter = 2082
tranpoints = 1042
accept = 1042
rejected = 0
matrix size = 14
fillins = 0
solver = Normal
Matrix Compiler1: 848 bytes object code size  0.2/0.2/[0.1]
Matrix Compiler2: 1.11 KB object code size  0.1/0.2/[0.1]

