Circuit: * D:\TCIIRepository\TCII\TS15\ts15.asc


Date: Fri Oct 28 13:36:14 2022
Total elapsed time: 0.078 seconds.

tnom = 27
temp = 27
method = trap
totiter = 0
traniter = 0
tranpoints = 0
accept = 0
rejected = 0
matrix size = 3
fillins = 0
solver = Normal

