Circuit: * D:\TCIIRepository\TCII\TS15\ts15.asc


Date: Sat Oct 29 15:10:23 2022
Total elapsed time: 0.090 seconds.

tnom = 27
temp = 27
method = trap
totiter = 0
traniter = 0
tranpoints = 0
accept = 0
rejected = 0
matrix size = 3
fillins = 0
solver = Normal

