Circuit: * D:\TCIIRepository\TCII\TPLAB1\Draft2.asc


Date: Tue Aug 23 15:31:43 2022
Total elapsed time: 0.045 seconds.

tnom = 27
temp = 27
method = trap
totiter = 0
traniter = 0
tranpoints = 0
accept = 0
rejected = 0
matrix size = 4
fillins = 1
solver = Normal

