Circuit: * D:\TCIIRepository\TCII\TS8\Draft1.asc

Direct Newton iteration for .op point succeeded.

Date: Wed Aug 24 12:23:51 2022
Total elapsed time: 1.857 seconds.

tnom = 27
temp = 27
method = modified trap
totiter = 2089
traniter = 2082
tranpoints = 1042
accept = 1042
rejected = 0
matrix size = 12
fillins = 0
solver = Normal
Matrix Compiler1: 624 bytes object code size  0.2/0.1/[0.1]
Matrix Compiler2: 920 bytes object code size  0.1/0.2/[0.1]

