Circuit: * D:\TCIIRepository\TCII\TS8\Draft2.asc

Direct Newton iteration for .op point succeeded.

Date: Wed Aug 24 16:13:30 2022
Total elapsed time: 0.051 seconds.

tnom = 27
temp = 27
method = modified trap
totiter = 2105
traniter = 2099
tranpoints = 1046
accept = 1045
rejected = 1
matrix size = 13
fillins = 2
solver = Normal
Matrix Compiler1: 816 bytes object code size  0.3/0.2/[0.1]
Matrix Compiler2: 1.00 KB object code size  0.2/0.2/[0.2]

