Circuit: * D:\TCIIRepository\TCII\TS14\Draft1.asc


Date: Thu Oct 27 18:11:18 2022
Total elapsed time: 0.094 seconds.

tnom = 27
temp = 27
method = trap
totiter = 0
traniter = 0
tranpoints = 0
accept = 0
rejected = 0
matrix size = 3
fillins = 0
solver = Normal

