Circuit: * D:\TCIIRepository\TCII\TS14\ts14.asc


Date: Tue Oct 25 15:09:20 2022
Total elapsed time: 0.070 seconds.

tnom = 27
temp = 27
method = trap
totiter = 0
traniter = 0
tranpoints = 0
accept = 0
rejected = 0
matrix size = 3
fillins = 0
solver = Normal

