Circuit: * D:\TCIIRepository\TCII\TS14\ts14.asc


Date: Wed Nov 23 13:18:45 2022
Total elapsed time: 0.194 seconds.

tnom = 27
temp = 27
method = trap
totiter = 0
traniter = 0
tranpoints = 0
accept = 0
rejected = 0
matrix size = 6
fillins = 0
solver = Normal

