Circuit: * D:\TCIIRepository\TCII\TS4\Draft1.asc


Date: Sat Jun 11 17:46:20 2022
Total elapsed time: 0.043 seconds.

tnom = 27
temp = 27
method = trap
totiter = 0
traniter = 0
tranpoints = 0
accept = 0
rejected = 0
matrix size = 3
fillins = 1
solver = Normal

