Circuit: * D:\TCIIRepository\TCII\TS4\Draft2.asc


Date: Sat Jun 11 18:28:47 2022
Total elapsed time: 0.036 seconds.

tnom = 27
temp = 27
method = trap
totiter = 0
traniter = 0
tranpoints = 0
accept = 0
rejected = 0
matrix size = 6
fillins = 3
solver = Normal

