Circuit: * D:\TCIIRepository\TCII\TS5\Allpasscircuit.asc


Date: Thu Jun 16 13:57:16 2022
Total elapsed time: 0.057 seconds.

tnom = 27
temp = 27
method = trap
totiter = 0
traniter = 0
tranpoints = 0
accept = 0
rejected = 0
matrix size = 4
fillins = 1
solver = Normal

