Circuit: * D:\TCIIRepository\TCII\TS5\Allpasscircuit.asc


Date: Wed Jun 15 11:41:13 2022
Total elapsed time: 0.078 seconds.

tnom = 27
temp = 27
method = trap
totiter = 0
traniter = 0
tranpoints = 0
accept = 0
rejected = 0
matrix size = 6
fillins = 3
solver = Normal

